Created from program!
New Line.HelloProgram